IEEE 30 Bus/IEEE_30_VLN_Node.Txt

LINE-GROUND and LINE-LINE VOLTAGES BY BUS & NODE

Bus  Node    VLN (kV)   Angle      pu     Base kV    Node-Node   VLL (kV)  Angle      pu

B1 . 1       80.782 /_    0.0      1.06   132.000        1-2     139.92 /_   30.0      1.06
   - 2       80.782 /_ -120.0      1.06   132.000        2-3     139.92 /_  -90.0      1.06
   - 3       80.782 /_  120.0      1.06   132.000        3-1     139.92 /_  150.0      1.06
B2 . 1       79.499 /_   -5.4    1.0432   132.000        1-2      137.7 /_   24.6    1.0432
   - 2       79.499 /_ -125.4    1.0432   132.000        2-3      137.7 /_  -95.4    1.0432
   - 3       79.499 /_  114.6    1.0432   132.000        3-1      137.7 /_  144.6    1.0432
B3 . 1       77.789 /_   -7.5    1.0207   132.000        1-2     134.73 /_   22.5    1.0207
   - 2       77.789 /_ -127.5    1.0207   132.000        2-3     134.73 /_  -97.5    1.0207
   - 3       77.789 /_  112.5    1.0207   132.000        3-1     134.73 /_  142.5    1.0207
B4 . 1       77.104 /_   -9.3    1.0117   132.000        1-2     133.55 /_   20.7    1.0117
   - 2       77.104 /_ -129.3    1.0117   132.000        2-3     133.55 /_  -99.3    1.0117
   - 3       77.104 /_  110.7    1.0117   132.000        3-1     133.55 /_  140.7    1.0117
B5 . 1       76.996 /_  -14.2    1.0103   132.000        1-2     133.36 /_   15.8    1.0103
   - 2       76.996 /_ -134.2    1.0103   132.000        2-3     133.36 /_ -104.2    1.0103
   - 3       76.996 /_  105.8    1.0103   132.000        3-1     133.36 /_  135.8    1.0103
B6 . 1       76.987 /_  -11.1    1.0102   132.000        1-2     133.35 /_   18.9    1.0102
   - 2       76.987 /_ -131.1    1.0102   132.000        2-3     133.35 /_ -101.1    1.0102
   - 3       76.987 /_  108.9    1.0102   132.000        3-1     133.35 /_  138.9    1.0102
B7 . 1       76.399 /_  -12.9    1.0025   132.000        1-2     132.33 /_   17.1    1.0025
   - 2       76.399 /_ -132.9    1.0025   132.000        2-3     132.33 /_ -102.9    1.0025
   - 3       76.399 /_  107.1    1.0025   132.000        3-1     132.33 /_  137.1    1.0025
B8 . 1       76.958 /_  -11.8    1.0098   132.000        1-2     133.29 /_   18.2    1.0098
   - 2       76.958 /_ -131.8    1.0098   132.000        2-3     133.29 /_ -101.8    1.0098
   - 3       76.958 /_  108.2    1.0098   132.000        3-1     133.29 /_  138.2    1.0098
B12  1       20.141 /_  -14.9    1.0571    33.000        1-2     34.886 /_   15.1    1.0571
   - 2       20.141 /_ -134.9    1.0571    33.000        2-3     34.886 /_ -104.9    1.0571
   - 3       20.141 /_  105.1    1.0571    33.000        3-1     34.886 /_  135.1    1.0571
B14  1       19.858 /_  -15.8    1.0423    33.000        1-2     34.396 /_   14.2    1.0423
   - 2       19.858 /_ -135.8    1.0423    33.000        2-3     34.396 /_ -105.8    1.0423
   - 3       19.858 /_  104.2    1.0423    33.000        3-1     34.396 /_  134.2    1.0423
B15  1       19.771 /_  -15.9    1.0377    33.000        1-2     34.244 /_   14.1    1.0377
   - 2       19.771 /_ -135.9    1.0377    33.000        2-3     34.244 /_ -105.9    1.0377
   - 3       19.771 /_  104.1    1.0377    33.000        3-1     34.244 /_  134.1    1.0377
B16  1       19.899 /_  -15.5    1.0444    33.000        1-2     34.465 /_   14.5    1.0444
   - 2       19.899 /_ -135.5    1.0444    33.000        2-3     34.465 /_ -105.5    1.0444
   - 3       19.899 /_  104.5    1.0444    33.000        3-1     34.465 /_  134.5    1.0444
B17  1       19.813 /_  -15.9    1.0399    33.000        1-2     34.317 /_   14.1    1.0399
   - 2       19.813 /_ -135.9    1.0399    33.000        2-3     34.317 /_ -105.9    1.0399
   - 3       19.813 /_  104.1    1.0399    33.000        3-1     34.317 /_  134.1    1.0399
B18  1       19.589 /_  -16.5    1.0282    33.000        1-2     33.929 /_   13.5    1.0282
   - 2       19.589 /_ -136.5    1.0282    33.000        2-3     33.929 /_ -106.5    1.0282
   - 3       19.589 /_  103.5    1.0282    33.000        3-1     33.929 /_  133.5    1.0282
B19  1       19.541 /_  -16.7    1.0257    33.000        1-2     33.847 /_   13.3    1.0257
   - 2       19.541 /_ -136.7    1.0257    33.000        2-3     33.847 /_ -106.7    1.0257
   - 3       19.541 /_  103.3    1.0257    33.000        3-1     33.847 /_  133.3    1.0257
B20  1       19.619 /_  -16.5    1.0297    33.000        1-2     33.982 /_   13.5    1.0297
   - 2       19.619 /_ -136.5    1.0297    33.000        2-3     33.982 /_ -106.5    1.0297
   - 3       19.619 /_  103.5    1.0297    33.000        3-1     33.982 /_  133.5    1.0297
B10  1       19.912 /_  -15.7    1.0451    33.000        1-2     34.489 /_   14.3    1.0451
   - 2       19.912 /_ -135.7    1.0451    33.000        2-3     34.489 /_ -105.7    1.0451
   - 3       19.912 /_  104.3    1.0451    33.000        3-1     34.489 /_  134.3    1.0451
B21  1       19.676 /_  -16.1    1.0327    33.000        1-2      34.08 /_   13.9    1.0327
   - 2       19.676 /_ -136.1    1.0327    33.000        2-3      34.08 /_ -106.1    1.0327
   - 3       19.676 /_  103.9    1.0327    33.000        3-1      34.08 /_  133.9    1.0327
B22  1       19.686 /_  -16.1    1.0333    33.000        1-2     34.098 /_   13.9    1.0333
   - 2       19.686 /_ -136.1    1.0333    33.000        2-3     34.098 /_ -106.1    1.0333
   - 3       19.686 /_  103.9    1.0333    33.000        3-1     34.098 /_  133.9    1.0333
B23  1       19.571 /_  -16.3    1.0272    33.000        1-2     33.897 /_   13.7    1.0272
   - 2       19.571 /_ -136.3    1.0272    33.000        2-3     33.897 /_ -106.3    1.0272
   - 3       19.571 /_  103.7    1.0272    33.000        3-1     33.897 /_  133.7    1.0272
B24  1       19.464 /_  -16.5    1.0216    33.000        1-2     33.712 /_   13.5    1.0216
   - 2       19.464 /_ -136.5    1.0216    33.000        2-3     33.712 /_ -106.5    1.0216
   - 3       19.464 /_  103.5    1.0216    33.000        3-1     33.712 /_  133.5    1.0216
B25  1       19.382 /_  -16.1    1.0173    33.000        1-2     33.571 /_   13.9    1.0173
   - 2       19.382 /_ -136.1    1.0173    33.000        2-3     33.571 /_ -106.1    1.0173
   - 3       19.382 /_  103.9    1.0173    33.000        3-1     33.571 /_  133.9    1.0173
B26  1       19.045 /_  -16.5   0.99962    33.000        1-2     32.987 /_   13.5   0.99962
   - 2       19.045 /_ -136.5   0.99962    33.000        2-3     32.987 /_ -106.5   0.99962
   - 3       19.045 /_  103.5   0.99962    33.000        3-1     32.987 /_  133.5   0.99962
B27  1       19.494 /_  -15.5    1.0232    33.000        1-2     33.765 /_   14.5    1.0232
   - 2       19.494 /_ -135.5    1.0232    33.000        2-3     33.765 /_ -105.5    1.0232
   - 3       19.494 /_  104.5    1.0232    33.000        3-1     33.765 /_  134.5    1.0232
B29  1       19.116 /_  -16.8    1.0033    33.000        1-2     33.111 /_   13.2    1.0033
   - 2       19.116 /_ -136.8    1.0033    33.000        2-3     33.111 /_ -106.8    1.0033
   - 3       19.116 /_  103.2    1.0033    33.000        3-1     33.111 /_  133.2    1.0033
B30  1       18.898 /_  -17.7   0.99187    33.000        1-2     32.732 /_   12.3   0.99187
   - 2       18.898 /_ -137.7   0.99187    33.000        2-3     32.732 /_ -107.7   0.99187
   - 3       18.898 /_  102.3   0.99187    33.000        3-1     32.732 /_  132.3   0.99187
B28  1       76.723 /_  -11.7    1.0067   132.000        1-2     132.89 /_   18.3    1.0067
   - 2       76.723 /_ -131.7    1.0067   132.000        2-3     132.89 /_ -101.7    1.0067
   - 3       76.723 /_  108.3    1.0067   132.000        3-1     132.89 /_  138.3    1.0067
B9 . 1      0.60675 /_  -14.1    1.0509     1.000        1-2     1.0509 /_   15.9    1.0509
   - 2      0.60675 /_ -134.1    1.0509     1.000        2-3     1.0509 /_ -104.1    1.0509
   - 3      0.60675 /_  105.9    1.0509     1.000        3-1     1.0509 /_  135.9    1.0509
B11  1       6.8723 /_  -14.1    1.0821    11.000        1-2     11.903 /_   15.9    1.0821
   - 2       6.8723 /_ -134.1    1.0821    11.000        2-3     11.903 /_ -104.1    1.0821
   - 3       6.8723 /_  105.9    1.0821    11.000        3-1     11.903 /_  135.9    1.0821
B13  1       6.8022 /_  -14.9    1.0711    11.000        1-2     11.782 /_   15.1    1.0711
   - 2       6.8022 /_ -134.9    1.0711    11.000        2-3     11.782 /_ -104.9    1.0711
   - 3       6.8022 /_  105.1    1.0711    11.000        3-1     11.782 /_  135.1    1.0711
